dset ^uv.dat
undef -9999.0
title  OUTPUT FROM WRF V3.4 MODEL
xdef  100 linear 0 0.005
ydef  100 linear 0 0.005
zdef  1 levels  0.00000
tdef  1 linear 00Z10APR2013    1440MN      
VARS   2
u    1  0  Vx
v    1  0  Vy
ENDVARS
